Version 4
SHEET 1 1464 680
WIRE -272 -176 -304 -176
WIRE 32 -176 -192 -176
WIRE -304 -48 -304 -176
WIRE -256 -48 -304 -48
WIRE -144 -48 -192 -48
WIRE 32 -32 32 -176
WIRE 80 -32 32 -32
WIRE 192 -32 144 -32
WIRE 592 -16 544 -16
WIRE 624 -16 592 -16
WIRE 864 -16 816 -16
WIRE 896 -16 864 -16
WIRE 544 0 544 -16
WIRE 816 0 816 -16
WIRE 624 48 624 -16
WIRE 896 48 896 -16
WIRE -400 80 -448 80
WIRE -304 80 -304 -48
WIRE -304 80 -320 80
WIRE -272 80 -304 80
WIRE -144 80 -144 -48
WIRE -144 80 -192 80
WIRE 32 96 32 -32
WIRE 64 96 32 96
WIRE 192 96 192 -32
WIRE 192 96 144 96
WIRE 544 176 544 80
WIRE 624 176 624 112
WIRE 624 176 544 176
WIRE 816 176 816 80
WIRE 896 176 896 112
WIRE 896 176 816 176
WIRE 624 192 624 176
WIRE 896 192 896 176
WIRE -224 208 -224 192
WIRE -304 224 -304 80
WIRE -256 224 -304 224
WIRE 112 224 112 208
WIRE -144 240 -144 80
WIRE -144 240 -192 240
WIRE -64 240 -144 240
WIRE 32 240 32 96
WIRE 32 240 16 240
WIRE 80 240 32 240
WIRE -400 256 -464 256
WIRE -256 256 -400 256
WIRE 192 256 192 96
WIRE 192 256 144 256
WIRE 224 256 192 256
WIRE -464 272 -464 256
WIRE 80 272 32 272
WIRE -224 288 -224 272
WIRE 32 304 32 272
WIRE 112 304 112 288
WIRE -720 384 -832 384
WIRE -720 480 -720 464
FLAG -224 288 VSS
FLAG -224 192 VDD0
FLAG 112 304 VSS
FLAG 112 208 VDD0
FLAG 864 -16 VDD0
FLAG 592 -16 VSS
FLAG 896 192 0
FLAG 624 192 0
FLAG 32 384 0
FLAG -448 80 0
FLAG -832 464 0
FLAG -464 176 0
FLAG 224 256 CURR_OUT
FLAG -400 256 CURR_IN
FLAG -720 560 0
FLAG -464 352 0
SYMBOL OpAmps\\MAX40018 -224 176 R0
SYMATTR InstName U1
SYMBOL res -416 96 R270
WINDOW 0 32 56 VTop 2
WINDOW 3 0 56 VBottom 2
SYMATTR InstName R4
SYMATTR Value 10Meg
SYMBOL res -288 96 R270
WINDOW 0 32 56 VTop 2
WINDOW 3 0 56 VBottom 2
SYMATTR InstName R3
SYMATTR Value 100k
SYMBOL cap -192 -64 R90
WINDOW 0 0 32 VBottom 2
WINDOW 3 32 32 VTop 2
SYMATTR InstName C1
SYMATTR Value 15p
SYMBOL OpAmps\\MAX40018 112 192 R0
SYMATTR InstName U2
SYMBOL res 48 112 R270
WINDOW 0 32 56 VTop 2
WINDOW 3 0 56 VBottom 2
SYMATTR InstName R2
SYMATTR Value 10Meg
SYMBOL res -80 256 R270
WINDOW 0 32 56 VTop 2
WINDOW 3 0 56 VBottom 2
SYMATTR InstName R1
SYMATTR Value 100k
SYMBOL cap 144 -48 R90
WINDOW 0 0 32 VBottom 2
WINDOW 3 32 32 VTop 2
SYMATTR InstName C2
SYMATTR Value 15p
SYMBOL res -288 -160 R270
WINDOW 0 32 56 VTop 2
WINDOW 3 0 56 VBottom 2
SYMATTR InstName RG
SYMATTR Value 500k
SYMBOL voltage 32 288 R0
WINDOW 3 -68 49 Left 2
WINDOW 123 24 124 Left 2
WINDOW 39 0 0 Left 0
SYMATTR Value 0
SYMATTR InstName V1
SYMBOL voltage 816 -16 M0
WINDOW 123 0 0 Left 2
WINDOW 39 0 0 Left 2
WINDOW 0 2 56 Center 2
WINDOW 3 54 59 Left 2
SYMATTR InstName V2
SYMATTR Value 2
SYMBOL cap 912 112 R180
WINDOW 0 24 56 Left 2
WINDOW 3 24 8 Left 2
SYMATTR InstName C3
SYMATTR Value 10µ
SYMATTR SpiceLine V=6.3 Irms=5.2 Rser=0.0063 Lser=4.18n
SYMBOL voltage 544 -16 M0
WINDOW 123 0 0 Left 2
WINDOW 39 0 0 Left 2
WINDOW 0 2 56 Center 2
WINDOW 3 54 59 Left 2
SYMATTR InstName V3
SYMATTR Value -2
SYMBOL cap 640 112 R180
WINDOW 0 24 56 Left 2
WINDOW 3 24 8 Left 2
SYMATTR InstName C4
SYMATTR Value 10µ
SYMATTR SpiceLine V=6.3 Irms=5.2 Rser=0.0063 Lser=4.18n
SYMBOL res -480 256 R0
SYMATTR InstName R5
SYMATTR Value 0.1
SYMBOL current -464 256 R180
WINDOW 3 43 35 Left 2
WINDOW 123 0 0 Left 0
WINDOW 39 0 0 Left 0
SYMATTR InstName I1
SYMATTR Value PWL(0 0 9.999 0 10 30m 20 -30m)
SYMBOL res -736 368 R0
SYMATTR InstName R6
SYMATTR Value 100
SYMBOL voltage -832 368 R0
WINDOW 3 -256 47 Left 2
WINDOW 123 24 124 Left 2
WINDOW 39 0 0 Left 0
SYMATTR Value PWL(0 -2 20 2)
SYMATTR InstName V4
SYMBOL res -736 464 R0
SYMATTR InstName R7
SYMATTR Value 0.1
TEXT 248 448 Left 2 !.tran 20s
TEXT 176 344 Left 2 ;Vout = vref - vin (1 + R2 / R1 + (R2 + R4) / RG)\nif R4/R3 = R2 / R1, gain of vref stays 1
TEXT -88 440 Left 2 ;Offset corr simulation
TEXT 904 -88 Left 2 ;My measurement range of interest is +/- 20 mA
